@<TRIPOS>MOLECULE
CLR
   74    77     1     0     0
SMALL
bcc


@<TRIPOS>ATOM
      1 C1         -16.9740    10.4680   -14.9720 c6       402 CLR      -0.070400
      2 C2         -17.0140     9.9910   -16.4190 c6       402 CLR      -0.075400
      3 C3         -16.6160    11.1100   -17.3740 c6       402 CLR       0.145100
      4 C4         -15.1940    11.5600   -17.0610 c6       402 CLR      -0.075200
      5 C5         -15.1000    11.9240   -15.5990 c2       402 CLR      -0.105400
      6 C6         -14.6020    13.1270   -15.2690 c2       402 CLR      -0.167200
      7 C7         -14.4790    13.6070   -13.8440 c6       402 CLR      -0.043200
      8 C8         -14.4010    12.4050   -12.9200 c6       402 CLR      -0.046700
      9 C9         -15.5920    11.4840   -13.1660 c6       402 CLR      -0.048700
     10 C10        -15.5700    10.9110   -14.5800 c6       402 CLR       0.000200
     11 C11        -15.6990    10.3530   -12.1350 c6       402 CLR      -0.075400
     12 C12        -15.5390    10.8190   -10.6880 c6       402 CLR      -0.066400
     13 C13        -14.2460    11.6060   -10.5970 c5       402 CLR      -0.042000
     14 C14        -14.4040    12.8300   -11.4640 c5       402 CLR      -0.065700
     15 C15        -13.3070    13.7780   -11.0070 c5       402 CLR      -0.073400
     16 C16        -13.1500    13.4810    -9.5150 c5       402 CLR      -0.079400
     17 C17        -13.8810    12.1680    -9.2330 c5       402 CLR      -0.051700
     18 C18        -13.1060    10.7510   -11.1350 c3       402 CLR      -0.081100
     19 C19        -14.6230     9.7180   -14.6310 c3       402 CLR      -0.083100
     20 C20        -13.0340    11.2150    -8.3970 c3       402 CLR      -0.050700
     21 C21        -11.5630    11.2790    -8.7930 c3       402 CLR      -0.088100
     22 C22        -13.5650     9.7880    -8.4860 c3       402 CLR      -0.076400
     23 C23        -12.7200     8.8400    -7.6430 c3       402 CLR      -0.079400
     24 C24        -12.5890     9.3530    -6.2130 c3       402 CLR      -0.076400
     25 C25        -13.9580     9.5360    -5.5690 c3       402 CLR      -0.068700
     26 C26        -14.7080     8.2130    -5.4940 c3       402 CLR      -0.089600
     27 C27        -13.8300    10.1720    -4.1890 c3       402 CLR      -0.089600
     28 O1         -16.6810    10.6350   -18.7240 oh       402 CLR      -0.600800
     29 H273       -13.2910     9.6020    -3.6180 hc       402 CLR       0.032700
     30 H272       -13.4060    11.0400    -4.2710 hc       402 CLR       0.032700
     31 H271       -14.7120    10.2790    -3.7990 hc       402 CLR       0.032700
     32 H263       -14.8310     7.8590    -6.3890 hc       402 CLR       0.032700
     33 H262       -14.1980     7.5810    -4.9640 hc       402 CLR       0.032700
     34 H261       -15.5740     8.3550    -5.0810 hc       402 CLR       0.032700
     35 H242       -12.0630     8.7290    -5.6890 hc       402 CLR       0.040200
     36 H241       -12.1120    10.1980    -6.2120 hc       402 CLR       0.040200
     37 H232       -13.1240     7.9580    -7.6380 hc       402 CLR       0.040200
     38 H231       -11.8390     8.7470    -8.0390 hc       402 CLR       0.040200
     39 H222       -14.4860     9.7620    -8.1830 hc       402 CLR       0.041200
     40 H221       -13.5620     9.4950    -9.4110 hc       402 CLR       0.041200
     41 H213       -11.4680    11.0340    -9.7270 hc       402 CLR       0.033700
     42 H212       -11.2310    12.1810    -8.6600 hc       402 CLR       0.033700
     43 H211       -11.0530    10.6630    -8.2440 hc       402 CLR       0.033700
     44 H193       -14.9290     9.0350   -14.0140 hc       402 CLR       0.037700
     45 H192       -14.6070     9.3560   -15.5310 hc       402 CLR       0.037700
     46 H191       -13.7300    10.0030   -14.3810 hc       402 CLR       0.037700
     47 H183       -13.0330     9.9400   -10.6080 hc       402 CLR       0.035700
     48 H182       -13.2830    10.5200   -12.0600 hc       402 CLR       0.035700
     49 H181       -12.2750    11.2480   -11.0800 hc       402 CLR       0.035700
     50 H162       -12.2120    13.4080    -9.2780 hc       402 CLR       0.041200
     51 H161       -13.5220    14.2010    -8.9820 hc       402 CLR       0.041200
     52 H152       -12.4800    13.6210   -11.4880 hc       402 CLR       0.041700
     53 H151       -13.5530    14.7040   -11.1600 hc       402 CLR       0.041700
     54 H122       -16.2920    11.3700   -10.4230 hc       402 CLR       0.040700
     55 H121       -15.5180    10.0590   -10.0860 hc       402 CLR       0.040700
     56 H112       -16.5610     9.9190   -12.2320 hc       402 CLR       0.041200
     57 H111       -15.0220     9.6860   -12.3280 hc       402 CLR       0.041200
     58 H9         -16.3820    12.0380   -13.0640 hc       402 CLR       0.047700
     59 H8         -13.5710    11.9390   -13.1090 hc       402 CLR       0.058700
     60 H72        -13.6870    14.1580   -13.7440 hc       402 CLR       0.049200
     61 H71        -15.2410    14.1600   -13.6100 hc       402 CLR       0.049200
     62 H6         -14.3070    13.7160   -15.9810 ha       402 CLR       0.119000
     63 H42        -14.5650    10.8520   -17.2700 hc       402 CLR       0.051200
     64 H41        -14.9560    12.3220   -17.6110 hc       402 CLR       0.051200
     65 H3         -17.2240    11.8580   -17.2670 h1       402 CLR       0.035700
     66 H25        -14.4730    10.1380    -6.1290 hc       402 CLR       0.046700
     67 H22        -16.4140     9.2370   -16.5310 hc       402 CLR       0.055200
     68 H21        -17.9060     9.6780   -16.6360 hc       402 CLR       0.055200
     69 H20        -13.0990    11.5020    -7.4730 hc       402 CLR       0.042700
     70 H17        -14.6780    12.3050    -8.6970 hc       402 CLR       0.040700
     71 H14        -15.2450    13.3050   -11.3780 hc       402 CLR       0.044700
     72 H12        -17.5940    11.2050   -14.8540 hc       402 CLR       0.044700
     73 H11        -17.2670     9.7540   -14.3850 hc       402 CLR       0.044700
     74 H1         -16.3350    11.2020   -19.2380 ho       402 CLR       0.398000
@<TRIPOS>BOND
     1     1     2 1   
     2     1    10 1   
     3     1    72 1   
     4     1    73 1   
     5     2     3 1   
     6     2    67 1   
     7     2    68 1   
     8     3     4 1   
     9     3    28 1   
    10     3    65 1   
    11     4     5 1   
    12     4    63 1   
    13     4    64 1   
    14     5     6 2   
    15     5    10 1   
    16     6     7 1   
    17     6    62 1   
    18     7     8 1   
    19     7    60 1   
    20     7    61 1   
    21     8     9 1   
    22     8    14 1   
    23     8    59 1   
    24     9    10 1   
    25     9    11 1   
    26     9    58 1   
    27    10    19 1   
    28    11    12 1   
    29    11    56 1   
    30    11    57 1   
    31    12    13 1   
    32    12    54 1   
    33    12    55 1   
    34    13    14 1   
    35    13    17 1   
    36    13    18 1   
    37    14    15 1   
    38    14    71 1   
    39    15    16 1   
    40    15    52 1   
    41    15    53 1   
    42    16    17 1   
    43    16    50 1   
    44    16    51 1   
    45    17    20 1   
    46    17    70 1   
    47    18    47 1   
    48    18    48 1   
    49    18    49 1   
    50    19    44 1   
    51    19    45 1   
    52    19    46 1   
    53    20    21 1   
    54    20    22 1   
    55    20    69 1   
    56    21    41 1   
    57    21    42 1   
    58    21    43 1   
    59    22    23 1   
    60    22    39 1   
    61    22    40 1   
    62    23    24 1   
    63    23    37 1   
    64    23    38 1   
    65    24    25 1   
    66    24    35 1   
    67    24    36 1   
    68    25    26 1   
    69    25    27 1   
    70    25    66 1   
    71    26    32 1   
    72    26    33 1   
    73    26    34 1   
    74    27    29 1   
    75    27    30 1   
    76    27    31 1   
    77    28    74 1   
@<TRIPOS>SUBSTRUCTURE
     1 CLR         1 TEMP              0 ****  ****    0 ROOT
