@<TRIPOS>MOLECULE
FX0
   74    77     1     0     0
SMALL
bcc


@<TRIPOS>ATOM
      1 C1           3.7680     9.3100   -14.3980 c3       401 FX0      -0.215000
      2 C2           4.1810     8.2710   -17.1540 c3       401 FX0      -0.212000
      3 C10          4.4460     9.5070   -10.1350 c6       401 FX0      -0.241000
      4 C11          6.4010    12.6010    -7.7160 c6       401 FX0      -0.156000
      5 C12          6.8140    12.4450   -12.1770 c5       401 FX0      -0.164000
      6 C19          3.9170     9.3410    -5.8050 c6       401 FX0      -0.226000
      7 C18          3.6590    11.4920    -8.0030 c3       401 FX0      -0.213000
      8 C20          4.8380    10.2980    -4.8550 c6       401 FX0       0.184000
      9 C13          6.6090    11.8970   -13.6710 c5       401 FX0      -0.161000
     10 C14          4.4720     9.2410    -7.2990 c6       401 FX0      -0.152000
     11 C15          5.3680    11.4550    -5.7180 c6       401 FX0      -0.215000
     12 C16          3.9740    11.6040   -12.2640 c3       401 FX0      -0.237000
     13 C17          4.7580    10.4030   -14.7230 c3       401 FX0      -0.096000
     14 C01          5.7630    11.5460   -10.0410 c6       401 FX0      -0.153000
     15 C02          6.3200    11.2500   -11.3790 c5       401 FX0      -0.074000
     16 C03          5.4260    10.3140    -9.3690 c6       401 FX0      -0.084000
     17 C04          5.1620    10.6420   -12.2680 c5       401 FX0      -0.088000
     18 C05          4.8840    10.5710    -7.9180 c6       401 FX0      -0.008000
     19 C06          5.8890    11.1710    -7.0840 c6       401 FX0      -0.168000
     20 C07          5.7770    10.5530   -13.5420 c5       401 FX0      -0.075000
     21 C08          6.9140    12.3740    -9.1880 c6       401 FX0       0.194000
     22 C09          4.7340     9.2200   -11.5780 c6       401 FX0       0.182000
     23 C21          7.4660    13.1190    -6.9160 c3       401 FX0      -0.146000
     24 C24          7.7450    14.5640    -7.3120 c3       401 FX0      -0.210000
     25 C25          4.5060     9.7640   -17.1200 c3       401 FX0      -0.096000
     26 C27          5.1080    10.1830   -18.4560 c2       401 FX0       0.308000
     27 O01          8.0140    11.6750    -9.1580 o        401 FX0      -0.292000
     28 O02          5.7700     8.3490   -11.6650 o        401 FX0      -0.296000
     29 O03          5.8650     9.5950    -4.3820 o        401 FX0      -0.286000
     30 O04          5.6860    11.2940   -18.5630 o        401 FX0      -0.341500
     31 O05          5.0280     9.4150   -19.4520 o        401 FX0      -0.341500
     32 C28          5.5100    10.0430   -15.9970 c3       401 FX0      -0.159000
     33 H9           5.6640    13.2320    -7.7250 hc       401 FX0       0.119000
     34 H8           4.3420     8.6570    -9.6790 hc       401 FX0       0.120000
     35 H7           3.5890     9.9600   -10.0890 hc       401 FX0       0.120000
     36 H6           3.5450     8.0940   -17.8650 hc       401 FX0       0.088667
     37 H5           4.9940     7.7660   -17.3150 hc       401 FX0       0.088667
     38 H46          6.1010    10.7690   -16.2510 hc       401 FX0       0.101000
     39 H45          6.0670     9.2630   -15.8460 hc       401 FX0       0.101000
     40 H40          3.6930    10.2680   -16.9590 hc       401 FX0       0.123000
     41 H4           3.7980     8.0040   -16.3040 hc       401 FX0       0.088667
     42 H39          7.9980    14.6000    -8.2480 hc       401 FX0       0.073667
     43 H38          6.9470    15.0980    -7.1720 hc       401 FX0       0.073667
     44 H37          8.4680    14.9150    -6.7690 hc       401 FX0       0.073667
     45 H36          7.2300    13.0710    -5.9760 hc       401 FX0       0.090000
     46 H35          8.2640    12.5810    -7.0360 hc       401 FX0       0.090000
     47 H34          3.9620     8.8330   -12.0200 h1       401 FX0       0.100000
     48 H33          7.0840    13.2300    -9.6120 h1       401 FX0       0.094000
     49 H32          6.3250     9.7550   -13.6040 hc       401 FX0       0.105000
     50 H31          6.6200    10.5350    -7.0370 hc       401 FX0       0.137000
     51 H30          6.2520     9.8090    -9.3070 hc       401 FX0       0.116000
     52 H3           4.2410     8.4730   -14.2710 hc       401 FX0       0.077000
     53 H29          7.0760    10.6690   -11.2030 hc       401 FX0       0.110000
     54 H28          4.9560    12.0790   -10.1150 hc       401 FX0       0.112000
     55 H27          4.2850    11.2400   -14.8510 hc       401 FX0       0.093000
     56 H26          3.6590    11.7250   -11.3550 hc       401 FX0       0.159333
     57 H25          4.2500    12.4600   -12.6270 hc       401 FX0       0.159333
     58 H24          3.2590    11.2380   -12.8080 hc       401 FX0       0.159333
     59 H23          4.6510    12.1020    -5.8090 hc       401 FX0       0.108500
     60 H22          6.0790    11.8880    -5.2200 hc       401 FX0       0.108500
     61 H21          5.2370     8.6440    -7.3070 hc       401 FX0       0.094500
     62 H20          3.7900     8.8360    -7.8580 hc       401 FX0       0.094500
     63 H2           3.2900     9.5380   -13.5850 hc       401 FX0       0.077000
     64 H19          6.1360    12.5460   -14.2160 hc       401 FX0       0.096000
     65 H18          7.4640    11.7350   -14.1000 hc       401 FX0       0.096000
     66 H17          4.3170    10.6390    -4.1110 h1       401 FX0       0.084000
     67 H16          2.9780    11.0750    -8.5540 hc       401 FX0       0.077667
     68 H15          3.3060    11.6440    -7.1120 hc       401 FX0       0.077667
     69 H14          3.9180    12.3400    -8.3970 hc       401 FX0       0.077667
     70 H13          3.8750     8.4520    -5.4190 hc       401 FX0       0.108500
     71 H12          3.0100     9.6850    -5.8230 hc       401 FX0       0.108500
     72 H11          7.7400    12.6600   -11.9860 hc       401 FX0       0.089500
     73 H10          6.2950    13.2460   -12.0030 hc       401 FX0       0.089500
     74 H1           3.1370     9.2170   -15.1290 hc       401 FX0       0.077000
@<TRIPOS>BOND
     1     1    13 1   
     2     1    52 1   
     3     1    63 1   
     4     1    74 1   
     5     2    25 1   
     6     2    36 1   
     7     2    37 1   
     8     2    41 1   
     9     3    16 1   
    10     3    22 1   
    11     3    34 1   
    12     3    35 1   
    13     4    19 1   
    14     4    21 1   
    15     4    23 1   
    16     4    33 1   
    17     5     9 1   
    18     5    15 1   
    19     5    72 1   
    20     5    73 1   
    21     6     8 1   
    22     6    10 1   
    23     6    70 1   
    24     6    71 1   
    25     7    18 1   
    26     7    67 1   
    27     7    68 1   
    28     7    69 1   
    29     8    11 1   
    30     8    29 1   
    31     8    66 1   
    32     9    20 1   
    33     9    64 1   
    34     9    65 1   
    35    10    18 1   
    36    10    61 1   
    37    10    62 1   
    38    11    19 1   
    39    11    59 1   
    40    11    60 1   
    41    12    17 1   
    42    12    56 1   
    43    12    57 1   
    44    12    58 1   
    45    13    20 1   
    46    13    32 1   
    47    13    55 1   
    48    14    15 1   
    49    14    16 1   
    50    14    21 1   
    51    14    54 1   
    52    15    17 1   
    53    15    53 1   
    54    16    18 1   
    55    16    51 1   
    56    17    20 1   
    57    17    22 1   
    58    18    19 1   
    59    19    50 1   
    60    20    49 1   
    61    21    27 1   
    62    21    48 1   
    63    22    28 1   
    64    22    47 1   
    65    23    24 1   
    66    23    45 1   
    67    23    46 1   
    68    24    42 1   
    69    24    43 1   
    70    24    44 1   
    71    25    26 1   
    72    25    32 1   
    73    25    40 1   
    74    26    30 1   
    75    26    31 1   
    76    32    38 1   
    77    32    39 1   
@<TRIPOS>SUBSTRUCTURE
     1 FX0         1 TEMP              0 ****  ****    0 ROOT
