@<TRIPOS>MOLECULE
PLM
   49    48     1     0     0
SMALL
bcc


@<TRIPOS>ATOM
      1 C1         -22.4880     3.0780   -19.4940 c        404 PLM       0.907600
      2 O1         -21.5800     2.7330   -18.7080 o        404 PLM      -0.857300
      3 O2         -22.9350     2.3250   -20.3850 o        404 PLM      -0.857300
      4 C2         -23.0860     4.4570   -19.3620 c3       404 PLM      -0.188400
      5 C3         -22.1220     5.5140   -19.8810 c3       404 PLM      -0.060400
      6 C4         -21.2330     6.0650   -18.7740 c3       404 PLM      -0.059400
      7 C5         -19.8230     5.5000   -18.8640 c3       404 PLM      -0.103400
      8 C6         -18.8770     6.2740   -17.9590 c3       404 PLM      -0.069400
      9 C7         -17.4730     5.6890   -18.0010 c3       404 PLM      -0.065400
     10 C8         -17.3490     4.4830   -17.0840 c3       404 PLM      -0.101400
     11 C9         -16.5030     4.8310   -15.8690 c3       404 PLM      -0.058400
     12 CA         -16.3470     3.6310   -14.9450 c3       404 PLM      -0.109400
     13 CB         -15.3430     3.9280   -13.8390 c3       404 PLM      -0.064400
     14 CC         -15.1100     2.7050   -12.9610 c3       404 PLM      -0.083400
     15 CD         -14.0270     2.9880   -11.9270 c3       404 PLM      -0.072400
     16 CE         -14.4880     4.0550   -10.9450 c3       404 PLM      -0.081400
     17 CF         -13.3410     4.5320   -10.0650 c3       404 PLM      -0.078400
     18 CG         -12.7660     3.3930    -9.2610 c3       404 PLM      -0.090100
     19 HG3        -13.4570     3.0160    -8.6940 hc       404 PLM       0.027700
     20 HG2        -12.4320     2.7080    -9.8620 hc       404 PLM       0.027700
     21 HG1        -12.0380     3.7210    -8.7100 hc       404 PLM       0.027700
     22 HF2        -12.6470     4.9250   -10.6170 hc       404 PLM       0.029700
     23 HF1        -13.6560     5.2280    -9.4670 hc       404 PLM       0.029700
     24 HE2        -14.8590     4.8070   -11.4320 hc       404 PLM       0.048200
     25 HE1        -15.1990     3.7000   -10.3890 hc       404 PLM       0.048200
     26 HD2        -13.8100     2.1730   -11.4480 hc       404 PLM       0.024200
     27 HD1        -13.2160     3.2800   -12.3720 hc       404 PLM       0.024200
     28 HC2        -15.9350     2.4590   -12.5140 hc       404 PLM       0.050700
     29 HC1        -14.8500     1.9500   -13.5110 hc       404 PLM       0.050700
     30 HB2        -14.5020     4.2130   -14.2300 hc       404 PLM       0.020700
     31 HB1        -15.6660     4.6630   -13.2950 hc       404 PLM       0.020700
     32 HA2        -17.2060     3.4030   -14.5560 hc       404 PLM       0.079200
     33 HA1        -16.0540     2.8600   -15.4560 hc       404 PLM       0.079200
     34 H92        -15.6290     5.1360   -16.1570 hc       404 PLM       0.015700
     35 H91        -16.9140     5.5640   -15.3850 hc       404 PLM       0.015700
     36 H82        -18.2300     4.1920   -16.8000 hc       404 PLM       0.069700
     37 H81        -16.9470     3.7430   -17.5650 hc       404 PLM       0.069700
     38 H72        -17.2550     5.4300   -18.9100 hc       404 PLM       0.015700
     39 H71        -16.8300     6.3660   -17.7370 hc       404 PLM       0.015700
     40 H62        -18.8510     7.2040   -18.2340 hc       404 PLM       0.025700
     41 H61        -19.2100     6.2570   -17.0480 hc       404 PLM       0.025700
     42 H52        -19.8280     4.5640   -18.6100 hc       404 PLM       0.063700
     43 H51        -19.5100     5.5440   -19.7810 hc       404 PLM       0.063700
     44 H42        -21.2000     7.0330   -18.8340 hc       404 PLM       0.014200
     45 H41        -21.6160     5.8470   -17.9100 hc       404 PLM       0.014200
     46 H32        -21.5680     5.1310   -20.5790 hc       404 PLM       0.024200
     47 H31        -22.6240     6.2400   -20.2830 hc       404 PLM       0.024200
     48 H22        -23.9190     4.5020   -19.8570 hc       404 PLM       0.022700
     49 H21        -23.2980     4.6350   -18.4320 hc       404 PLM       0.022700
@<TRIPOS>BOND
     1     1     2 1   
     2     1     3 1   
     3     1     4 1   
     4     4     5 1   
     5     4    48 1   
     6     4    49 1   
     7     5     6 1   
     8     5    46 1   
     9     5    47 1   
    10     6     7 1   
    11     6    44 1   
    12     6    45 1   
    13     7     8 1   
    14     7    42 1   
    15     7    43 1   
    16     8     9 1   
    17     8    40 1   
    18     8    41 1   
    19     9    10 1   
    20     9    38 1   
    21     9    39 1   
    22    10    11 1   
    23    10    36 1   
    24    10    37 1   
    25    11    12 1   
    26    11    34 1   
    27    11    35 1   
    28    12    13 1   
    29    12    32 1   
    30    12    33 1   
    31    13    14 1   
    32    13    30 1   
    33    13    31 1   
    34    14    15 1   
    35    14    28 1   
    36    14    29 1   
    37    15    16 1   
    38    15    26 1   
    39    15    27 1   
    40    16    17 1   
    41    16    24 1   
    42    16    25 1   
    43    17    18 1   
    44    17    22 1   
    45    17    23 1   
    46    18    19 1   
    47    18    20 1   
    48    18    21 1   
@<TRIPOS>SUBSTRUCTURE
     1 PLM         1 TEMP              0 ****  ****    0 ROOT
